test/data/enwl/networks/network_7/Feeder_7/Loads.dss
New Load.LOAD1 Phases=1 Bus1=89.1 kV=0.23 kW=1 PF=0.95
New Load.LOAD2 Phases=1 Bus1=90.3 kV=0.23 kW=1 PF=0.95
New Load.LOAD3 Phases=1 Bus1=98.2 kV=0.23 kW=1 PF=0.95
New Load.LOAD4 Phases=1 Bus1=99.1 kV=0.23 kW=1 PF=0.95
New Load.LOAD5 Phases=1 Bus1=137.3 kV=0.23 kW=1 PF=0.95
New Load.LOAD6 Phases=1 Bus1=153.1 kV=0.23 kW=1 PF=0.95
New Load.LOAD7 Phases=1 Bus1=167.2 kV=0.23 kW=1 PF=0.95
New Load.LOAD8 Phases=1 Bus1=168.2 kV=0.23 kW=1 PF=0.95
New Load.LOAD9 Phases=1 Bus1=179.1 kV=0.23 kW=1 PF=0.95
New Load.LOAD10 Phases=1 Bus1=186.3 kV=0.23 kW=1 PF=0.95
New Load.LOAD11 Phases=1 Bus1=202.3 kV=0.23 kW=1 PF=0.95
New Load.LOAD12 Phases=1 Bus1=203.3 kV=0.23 kW=1 PF=0.95
New Load.LOAD13 Phases=1 Bus1=237.1 kV=0.23 kW=1 PF=0.95
New Load.LOAD14 Phases=1 Bus1=238.1 kV=0.23 kW=1 PF=0.95
New Load.LOAD15 Phases=1 Bus1=262.1 kV=0.23 kW=1 PF=0.95
New Load.LOAD16 Phases=1 Bus1=263.3 kV=0.23 kW=1 PF=0.95
New Load.LOAD17 Phases=1 Bus1=310.2 kV=0.23 kW=1 PF=0.95
New Load.LOAD18 Phases=1 Bus1=328.2 kV=0.23 kW=1 PF=0.95
New Load.LOAD19 Phases=1 Bus1=332.1 kV=0.23 kW=1 PF=0.95
New Load.LOAD20 Phases=1 Bus1=337.3 kV=0.23 kW=1 PF=0.95
New Load.LOAD21 Phases=1 Bus1=345.1 kV=0.23 kW=1 PF=0.95
New Load.LOAD22 Phases=1 Bus1=348.3 kV=0.23 kW=1 PF=0.95